10
Properties=species:S:1:pos:R:3 pbc="F F F"
O        0.00030000      -1.31710000      -0.00020000
C        0.00000000      -0.08720000       0.00060000
C        1.28100000       0.70240000      -0.00020000
C       -1.28130000       0.70190000      -0.00020000
H        1.32790000       1.32350000      -0.89800000
H        1.32600000       1.32820000       0.89450000
H        2.13510000       0.01960000       0.00270000
H       -2.13520000       0.01870000       0.00270000
H       -1.32840000       1.32300000      -0.89800000
H       -1.32660000       1.32780000       0.89450000
